Circuit: * C:\Users\Mini\Desktop\Proyecto\Draft1.asc

Direct Newton iteration for .op point succeeded.

Date: Sat Jan 23 18:07:34 2021
Total elapsed time: 0.840 seconds.

tnom = 27
temp = 27
method = modified trap
totiter = 54058
traniter = 54016
tranpoints = 15425
accept = 10448
rejected = 4977
matrix size = 34
fillins = 23
solver = Normal
Matrix Compiler1: 2.33 KB object code size  1.3/0.6/[0.4]
Matrix Compiler2: off  [0.6]/1.1/0.8

